<?xml version="1.0" encoding="UTF-8"?>

<!-- generated on 2025-08-03 22:38:28 by Eclipse SUMO netedit Version 1.23.1
-->

<additional xmlns:xsi="http://www.w3.org/2001/XMLSchema-instance" xsi:noNamespaceSchemaLocation="http://sumo.dlr.de/xsd/additional_file.xsd">
    <!-- MeanDataEdges -->
    <edgeData id="wizard_example" file="edgeData.xml" period="3600.00"/>
</additional>
